<configuration>
    <input>
        <net-file value="map.net.xml"/>
        <route-files value="routes_high_density.rou.xml"/>
    </input>
    <time>
        <begin value="0"/>
    </time>
</configuration>
